tests/data/state_estimation/ill-conditioned-system/grid3-with-capacitance/asym_output.json
{
  "version": "1.0",
  "type": "asym_output",
  "is_batch": false,
  "attributes": {},
  "data": {
    "node": [
      {
        "id": 0,
        "energized": 1,
        "u_pu": [
          0.9950001943413628,
          0.9950001943413634,
          0.9950001943413617
        ],
        "u": [
          5744.636300467158,
          5744.636300467161,
          5744.636300467151
        ],
        "u_angle": [
          -0.007110418039268042,
          -2.101505520432464,
          2.087284684353926
        ],
        "p": [
          502147.0585833219,
          502147.0585833269,
          502147.0585833932
        ],
        "q": [
          281408.0800057805,
          281408.0800058427,
          281408.0800058083
        ]
      },
      {
        "id": 1,
        "energized": 1,
        "u_pu": [
          0.9926223784320097,
          0.9926223784320103,
          0.9926223784320078
        ],
        "u": [
          5730.907973913674,
          5730.907973913677,
          5730.907973913663
        ],
        "u_angle": [
          -0.007765084925625658,
          -2.102160187318821,
          2.086630017467568
        ],
        "p": [
          1.895349389432269e-08,
          1.053955946708715e-07,
          -9.791336816028413e-08
        ],
        "q": [
          1.866140513819525e-08,
          -6.194631884748168e-08,
          2.015364291018367e-08
        ]
      },
      {
        "id": 2,
        "energized": 1,
        "u_pu": [
          0.990213941647649,
          0.9902139416476498,
          0.9902139416476472
        ],
        "u": [
          5717.002857655905,
          5717.00285765591,
          5717.002857655895
        ],
        "u_angle": [
          -0.008391266374491493,
          -2.102786368767687,
          2.086003836018703
        ],
        "p": [
          -500000.0000000018,
          -500000.0000000434,
          -500000.0000000083
        ],
        "q": [
          -300000.0000000299,
          -299999.9999999707,
          -300000.0000000731
        ]
      }
    ],
    "line": [
      {
        "id": 3,
        "energized": 1,
        "p_from": [
          502147.0585833219,
          502147.0585833269,
          502147.0585833932
        ],
        "q_from": [
          281408.0800057805,
          281408.0800058427,
          281408.0800058083
        ],
        "i_from": [
          100.201868894777,
          100.201868894783,
          100.2018688947903
        ],
        "s_from": [
          575623.293427587,
          575623.2934276218,
          575623.2934276627
        ],
        "p_to": [
          -501082.4600070894,
          -501082.4600070579,
          -501082.4600071934
        ],
        "q_to": [
          -290737.9705837811,
          -290737.9705837948,
          -290737.9705838122
        ],
        "i_to": [
          101.0870294891334,
          101.0870294891298,
          101.087029489152
        ],
        "s_to": [
          579320.4633585213,
          579320.4633585011,
          579320.4633586269
        ]
      },
      {
        "id": 4,
        "energized": 1,
        "p_from": [
          501082.4600071083,
          501082.4600071633,
          501082.4600070955
        ],
        "q_from": [
          290737.9705837998,
          290737.9705837329,
          290737.9705838324
        ],
        "i_from": [
          101.0870294891379,
          101.0870294891403,
          101.087029489139
        ],
        "s_from": [
          579320.4633585471,
          579320.463358561,
          579320.4633585524
        ],
        "p_to": [
          -500000.0000000018,
          -500000.0000000434,
          -500000.0000000083
        ],
        "q_to": [
          -300000.0000000299,
          -299999.9999999707,
          -300000.0000000731
        ],
        "i_to": [
          101.9931604028669,
          101.9931604028677,
          101.9931604028719
        ],
        "s_to": [
          583095.189484547,
          583095.1894845521,
          583095.1894845748
        ]
      }
    ],
    "source": [
      {
        "id": 5,
        "energized": 1,
        "p": [
          502147.0585833219,
          502147.0585833269,
          502147.0585833932
        ],
        "q": [
          281408.0800057805,
          281408.0800058428,
          281408.0800058083
        ],
        "i": [
          100.201868894777,
          100.201868894783,
          100.2018688947903
        ],
        "s": [
          575623.293427587,
          575623.2934276218,
          575623.2934276627
        ],
        "pf": [
          0.872353610975772,
          0.8723536109757279,
          0.8723536109757811
        ]
      }
    ],
    "sym_load": [
      {
        "id": 6,
        "energized": 1,
        "p": [
          500000,
          500000,
          500000
        ],
        "q": [
          299999.9999999999,
          299999.9999999999,
          299999.9999999999
        ],
        "i": [
          101.9931604028639,
          101.9931604028638,
          101.9931604028641
        ],
        "s": [
          583095.1894845299,
          583095.1894845299,
          583095.1894845299
        ],
        "pf": [
          0.8574929257125444,
          0.8574929257125444,
          0.8574929257125444
        ]
      }
    ]
  }
}
