tests/data/state_estimation/ill-conditioned-system/grid3-with-capacitance/sym_output.json
{
  "version": "1.0",
  "type": "sym_output",
  "is_batch": false,
  "attributes": {},
  "data": {
    "node": [
      {
        "id": 0,
        "energized": 1,
        "u_pu": 0.9950001943413628,
        "u": 9950.001943413628,
        "u_angle": -0.007110418039268063,
        "p": 1506441.175750137,
        "q": 844224.24001751
      },
      {
        "id": 1,
        "energized": 1,
        "u_pu": 0.9926223784320094,
        "u": 9926.223784320095,
        "u_angle": -0.007765084925625582,
        "p": -8.762662683823032e-10,
        "q": -1.128446970975538e-07
      },
      {
        "id": 2,
        "energized": 1,
        "u_pu": 0.9902139416476489,
        "u": 9902.139416476488,
        "u_angle": -0.00839126637449151,
        "p": -1499999.999999948,
        "q": -899999.9999999774
      }
    ],
    "line": [
      {
        "id": 3,
        "energized": 1,
        "p_from": 1506441.175750137,
        "q_from": 844224.24001751,
        "i_from": 100.2018688947905,
        "s_from": 1726869.880282992,
        "p_to": -1503247.380021381,
        "q_to": -872213.9117514552,
        "i_to": 101.0870294891424,
        "s_to": 1737961.390075718
      },
      {
        "id": 4,
        "energized": 1,
        "p_from": 1503247.38002138,
        "q_from": 872213.9117513422,
        "i_from": 101.0870294891391,
        "s_from": 1737961.390075661,
        "p_to": -1499999.999999948,
        "q_to": -899999.9999999774,
        "i_to": 101.9931604028607,
        "s_to": 1749285.568453534
      }
    ],
    "source": [
      {
        "id": 5,
        "energized": 1,
        "p": 1506441.175750137,
        "q": 844224.24001751,
        "i": 100.2018688947905,
        "s": 1726869.880282992,
        "pf": 0.8723536109757541
      }
    ],
    "sym_load": [
      {
        "id": 6,
        "energized": 1,
        "p": 1500000,
        "q": 899999.9999999999,
        "i": 101.9931604028639,
        "s": 1749285.56845359,
        "pf": 0.8574929257125443
      }
    ]
  }
}
